#!/bin/bash
# Install git configuration.
MODPATH=$(cd "$(dirname "$0")"; pwd)
rm -f ~/.gitconfig
if [[ -e "${MODPATH}/gitconfig" ]]; then
	ln -sf "${MODPATH}/gitconfig" ~/.gitconfig
fi
