#!/bin/bash
# Install all the dotfiles.

DOT=$(readlink -f "$(dirname $0)")
MODS="${DOT}/modules"

git submodule update --init 1>&2

PATH="${DOT}/bin:${PATH}"

for MOD in $(ls "$MODS"); do
	MODPATH="${MODS}/${MOD}"
	MODINSTALL="${MODPATH}/install"
	test -e "$MODINSTALL" && source $MODINSTALL
done
