#!/bin/bash
# Install vim configuration.
MODPATH=$(cd "$(dirname "$0")"; pwd)

rm -f ~/.vimrc
rm -f ~/.gvimrc

if [[ -e "${MODPATH}/vimrc" ]]; then
	ln -sf "${MODPATH}/vimrc" ~/.vimrc
	ln -sf "${MODPATH}/vimrc" ~/.gvimrc
fi

if [[ "${HOME}/.vim" != "$MODPATH" ]]; then
	rm -rf ~/.vim
	ln -sf "$MODPATH" ~/.vim
fi
