#!/bin/bash
# Install Neovim configuration.
MODPATH=$(cd "$(dirname "$0")"; pwd)

rm -f ~/.config/nvim
ln -sf "$MODPATH" ~/.config/nvim
ln -sf ~/.vim/colors "$MODPATH/colors"
