#!/bin/bash
# Install fonts.
mkdir -p ~/.fontconfig ~/.cache/fontconfig
rm -rf ~/.fonts
ln -sf "$MODPATH" ~/.fonts
fc-cache -vf ~/.fonts
