if ! which keysocket-server > /dev/null; then
    "$MODPATH/build"
fi
