#!/bin/bash
# Install local xorg configuration.
MODPATH=$(cd "$(dirname "$0")"; pwd)
ln -sf "${MODPATH}/xinitrc" ~/.xinitrc
ln -sf "${MODPATH}/xinitrc" ~/.xsession
ln -sf "${MODPATH}/Xmodmap.apple" ~/.xmodmap
ln -sf "${MODPATH}/Xdefaults" ~/.Xdefaults
