#!/bin/bash
# Install local xorg configuration.
MODPATH=$(cd "$(dirname "$0")"; pwd)
ln -sf "${MODPATH}/Xmodmap.standard" ~/.xmodmap
ln -sf "${MODPATH}/Xresources" ~/.Xresources
