#!/bin/bash
MODPATH=$(cd "$(dirname "$0")"; pwd)
ln -s "${MODPATH}/tmux.conf" ~/.tmux.conf
