#!/bin/bash
# Install bash dot files.
ln -sf "${MODPATH}/bashrc" ~/.bashrc
ln -sf "${MODPATH}/bash_logout" ~/.bash_logout
ln -sf "${MODPATH}/bash_profile" ~/.bash_profile
ln -sf "${MODPATH}/inputrc" ~/.inputrc
